STAAD SPACE DXF Import of rahulkumar.dxf
START JOB INFORMATION
ENGINEER DATE 22-Jun-16
JOB NAME commercial building
JOB NO 1
JOB REV 1
JOB COMMENT design of column and beam
ENGINEER NAME RAHUL
END JOB INFORMATION
INPUT WIDTH 79
UNIT FEET KN
JOINT COORDINATES
1 -349.726 0 176.067; 2 -349.726 10.25 176.067; 3 -349.726 0 159.567;
4 -349.726 10.25 159.567; 5 -349.726 0 143.067;
6 -349.726 10.25 143.067; 7 -349.726 0 126.567;
8 -349.726 10.25 126.567; 9 -349.726 0 110.067;
10 -349.726 10.25 110.067; 11 -330.476 0 110.067;
12 -330.476 10.25 110.067; 13 -330.476 0 176.067;
14 -330.476 10.25 176.067; 15 -311.226 0 176.067;
16 -311.226 10.25 176.067; 17 -311.226 0 110.067;
18 -311.226 10.25 110.067; 19 -330.476 0 159.567;
20 -330.476 10.25 159.567; 21 -311.226 0 159.567;
22 -311.226 10.25 159.567; 23 -330.476 0 143.067;
24 -330.476 10.25 143.067; 25 -311.226 0 143.067;
26 -311.226 10.25 143.067; 27 -330.476 0 126.567;
28 -330.476 10.25 126.567; 29 -311.226 0 126.567;
30 -311.226 10.25 126.567; 31 -349.726 21.75 176.067;
32 -349.726 21.75 159.567; 33 -349.726 21.75 143.067;
34 -349.726 21.75 126.567; 35 -330.476 21.75 126.567;
36 -311.226 21.75 126.567; 37 -311.226 21.75 143.067;
38 -330.476 21.75 143.067; 39 -330.476 21.75 159.567;
40 -330.476 21.75 176.067; 41 -311.226 21.75 176.067;
# ... 13 like lines cut
MEMBER INCIDENCES
1 1 2; 2 3 4; 3 5 6; 4 7 8; 5 9 10; 6 11 12; 7 13 14; 8 15 16; 9 17 18;
10 19 20; 11 21 22; 12 23 24; 13 25 26; 14 27 28; 15 29 30; 16 14 20;
17 20 24; 18 24 28; 19 28 12; 20 2 4; 21 4 6; 22 6 8; 23 8 10; 24 2 14;
25 14 16; 26 16 22; 27 22 26; 28 26 30; 29 30 18; 30 18 12; 31 12 10;
32 8 28; 33 28 30; 34 6 24; 35 24 26; 36 22 20; 37 20 4; 38 2 31;
39 4 32; 40 6 33; 41 8 34; 42 28 35; 43 30 36; 44 26 37; 45 24 38;
46 20 39; 47 14 40; 48 16 41; 49 40 39; 50 39 38; 51 38 35; 52 31 32;
53 32 33; 54 33 34; 55 31 40; 56 40 41; 57 41 42; 58 42 37; 59 37 36;
60 34 35; 61 35 36; 62 33 38; 63 38 37; 64 42 39; 65 39 32; 66 22 42;
67 31 43; 68 32 44; 69 33 45; 70 34 46; 71 35 47; 72 36 48; 73 37 49;
74 38 50; 75 39 51; 76 40 52; 77 41 53; 78 52 51; 79 51 50; 80 50 47;
81 43 44; 82 44 45; 83 45 46; 84 43 52; 85 52 53; 86 53 54; 87 54 49;
88 49 48; 89 46 47; 90 47 48; 91 45 50; 92 50 49; 93 54 51; 94 51 44;
95 42 54; 96 43 55; 97 44 56; 98 45 57; 99 46 58; 100 47 59; 101 48 60;
102 49 61; 103 50 62; 104 51 63; 105 52 64; 106 53 65; 107 64 63;
108 63 62; 109 62 59; 110 55 56; 111 56 57; 112 57 58; 113 55 64;
114 64 65; 115 65 66; 116 66 61; 117 61 60; 118 58 59; 119 59 60;
120 57 62; 121 62 61; 122 66 63; 123 63 56; 124 54 66;
DEFINE MATERIAL START
ISOTROPIC CONCRETE
E 2.01771e+006
POISSON 0.17
DENSITY 0.668728
ALPHA 5e-006
DAMP 0.05
TYPE CONCRETE
STRENGTH FCU 2562.18
END DEFINE MATERIAL
MEMBER PROPERTY
1 TO 15 38 TO 48 66 TO 77 95 TO 106 124 PRIS YD 1.5 ZD 1.5
16 TO 37 49 TO 65 78 TO 94 107 TO 123 PRIS YD 1.5 ZD 1.25
CONSTANTS
MATERIAL CONCRETE ALL
SUPPORTS
1 3 5 7 9 11 13 15 17 19 21 23 25 27 29 FIXED
LOAD 1 LOADTYPE Dead  TITLE dead load
SELFWEIGHT Y -1.5 LIST ALL
MEMBER LOAD
20 TO 33 52 TO 61 81 TO 90 UNI GY -4.64
LOAD 2 LOADTYPE Live  TITLE live load
FLOOR LOAD
YRANGE 0 34.5 FLOAD -0.371612 GY
LOAD COMB 3 COMBINATION LOAD CASE 3
1 1.0 2 1.0 
PERFORM ANALYSIS PRINT ALL
START CONCRETE DESIGN
CODE INDIAN
FC 2787.09 ALL
FYMAIN 38554.8 ALL
DESIGN BEAM 16 TO 37 49 TO 65 78 TO 94 107 TO 123
DESIGN COLUMN 1 TO 15 38 TO 48 66 TO 77 95 TO 106 124
END CONCRETE DESIGN
FINISH
